# DIS package for MODFLOW-2005 generated by Flopy 3.9.5
         1        60        60         1         4         2
  0
CONSTANT    5.000000E+01                           #delr                          
CONSTANT    5.000000E+01                           #delc                          
CONSTANT    2.000000E+02                           #model_top                     
CONSTANT   -2.000000E+02                           #botm layer 1                  
      1.000000             1  1.000000  SS
